/*--------------------------------*- C++ -*----------------------------------*\
| =========                 |                                                 |
| \\      /  F ield         | foam-extend: Open Source CFD                    |
|  \\    /   O peration     | Version:     3.2                                |
|   \\  /    A nd           | Web:         http://www.foam-extend.org         |
|    \\/     M anipulation  | For copyright notice see file Copyright         |
\*---------------------------------------------------------------------------*/
FoamFile
{
    version     2.0;
    format      ascii;
    class       polyBoundaryMesh;
    location    "constant/polyMesh";
    object      boundary;
}
// * * * * * * * * * * * * * * * * * * * * * * * * * * * * * * * * * * * * * //

6
(
    outside
    {
        type            patch;
        nFaces          1152;
        startFace       107136;
    }
    symmx
    {
        type            patch;
        nFaces          768;
        startFace       108288;
    }
    symmy
    {
        type            patch;
        nFaces          768;
        startFace       109056;
    }
    inside
    {
        type            patch;
        nFaces          1152;
        startFace       109824;
    }
    top
    {
        type            patch;
        nFaces          1536;
        startFace       110976;
    }
    bottom
    {
        type            patch;
        nFaces          1536;
        startFace       112512;
    }
)

// ************************************************************************* //
