/*--------------------------------*- C++ -*----------------------------------*\
| =========                 |                                                 |
| \\      /  F ield         | foam-extend: Open Source CFD                    |
|  \\    /   O peration     | Version:     3.0                                |
|   \\  /    A nd           | Web:         http://www.extend-project.de       |
|    \\/     M anipulation  |                                                 |
\*---------------------------------------------------------------------------*/
FoamFile
{
    version     2.0;
    format      ascii;
    class       dictionary;
    object      fluidProperties;
}
// * * * * * * * * * * * * * * * * * * * * * * * * * * * * * * * * * * * * * //

fluidModel buoyantBoussinesqPimpleFluid;

buoyantBoussinesqPimpleFluidCoeffs
{
    //nCorrectors     2;
    //nNonOrthogonalCorrectors 0;
    //nOuterCorrectors 1;
    pRefCell        0;
    pRefValue       0;
}

// ************************************************************************* //
