/*--------------------------------*- C++ -*----------------------------------*\
| =========                 |                                                 |
| \\      /  F ield         | foam-extend: Open Source CFD                    |
|  \\    /   O peration     | Version:     3.0                                |
|   \\  /    A nd           | Web:         http://www.extend-project.de       |
|    \\/     M anipulation  |                                                 |
\*---------------------------------------------------------------------------*/
FoamFile
{
    version     2.0;
    format      ascii;
    class       dictionary;
    object      transportProperties;
}
// * * * * * * * * * * * * * * * * * * * * * * * * * * * * * * * * * * * * * //

transportModel Newtonian;

nu              nu [0 2 -1 0 0 0 0] 1e-3;

rho             rho [1 -3 0 0 0 0 0] 1000;

// Thermal expansion coefficient
beta            beta [0 0 0 -1 0 0 0] 0;

// Reference temperature
TRef            TRef [0 0 0 1 0 0 0] 300;

// Laminar Prandtl number
Pr              Pr [0 0 0 0 0 0 0] 0.7;

// Turbulent Prandtl number
Prt             Prt [0 0 0 0 0 0 0] 0.9;

// Heat capacity
C               C [ 0 2 -2 -1 0 0 0 ] 4182;

// ************************************************************************* //
