/*--------------------------------*- C++ -*----------------------------------*\
| =========                 |                                                 |
| \\      /  F ield         | foam-extend: Open Source CFD                    |
|  \\    /   O peration     | Version:     4.0                                |
|   \\  /    A nd           | Web:         http://www.foam-extend.org         |
|    \\/     M anipulation  |                                                 |
\*---------------------------------------------------------------------------*/
FoamFile
{
    version     2.0;
    format      ascii;
    class       polyBoundaryMesh;
    location    "constant/polyMesh";
    object      boundary;
}
// * * * * * * * * * * * * * * * * * * * * * * * * * * * * * * * * * * * * * //

6
(
    top
    {
        type            empty;
        nFaces          100;
        startFace       99;
    }
    left
    {
        type            patch;
        nFaces          1;
        startFace       199;
    }
    right
    {
        type            patch;
        nFaces          1;
        startFace       200;
    }
    bottom
    {
        type            empty;
        nFaces          100;
        startFace       201;
    }
    front
    {
        type            empty;
        nFaces          100;
        startFace       301;
    }
    back
    {
        type            empty;
        nFaces          100;
        startFace       401;
    }
)


// ************************************************************************* //
