/*--------------------------------*- C++ -*----------------------------------*\
| =========                 |                                                 |
| \\      /  F ield         | OpenFOAM Extend Project: Open Source CFD        |
|  \\    /   O peration     | Version:  1.6-ext                               |
|   \\  /    A nd           | Web:      www.extend-project.de                 |
|    \\/     M anipulation  |                                                 |
\*---------------------------------------------------------------------------*/
FoamFile
{
    version     2.0;
    format      ascii;
    class       volVectorField;
    location    "0";
    object      D;
}
// * * * * * * * * * * * * * * * * * * * * * * * * * * * * * * * * * * * * * //

dimensions      [0 1 0 0 0 0 0];

internalField   uniform (0 0 0);

boundaryField
{
    top
    {
        type           fixedDisplacementZeroShear;
        displacementSeries
        {
            fileName "$FOAM_CASE/constant/timeVsDisp";
            outOfBounds clamp;
        }
        //type           solidTraction;
        tractionSeries
        {
            fileName "$FOAM_CASE/constant/timeVsTrac";
            outOfBounds clamp;
        }
        pressure       uniform 0;
        value          uniform ( 0 0 0 );
    }
    right
    {
        type           solidTraction;
        traction       uniform ( 0 0 0 );
        pressure       uniform 0;
        value          uniform ( 0 0 0 );
    }
    front
    {
        type           solidTraction;
        traction       uniform ( 0 0 0 );
        pressure       uniform 0;
        value          uniform ( 0 0 0 );
    }
    bottom
    {
        type           fixedDisplacementZeroShear;
        value          uniform ( 0 0 0 );
    }
    left
    {
        type           fixedDisplacementZeroShear;
        value          uniform ( 0 0 0 );
    }
    back
    {
        type           fixedDisplacementZeroShear;
        value          uniform ( 0 0 0 );
    }
}

// ************************************************************************* //
